Version 4
SHEET 1 3940 964
WIRE -400 -192 -464 -192
WIRE -240 -192 -320 -192
WIRE -464 -176 -464 -192
WIRE -240 -176 -240 -192
WIRE -96 -176 -240 -176
WIRE 0 -176 -96 -176
WIRE 48 -176 0 -176
WIRE 192 -176 48 -176
WIRE 432 -176 320 -176
WIRE -464 -160 -464 -176
WIRE -240 -144 -240 -176
WIRE -96 -144 -96 -176
WIRE 0 -144 0 -176
WIRE 320 -112 320 -176
WIRE -96 -80 -96 -96
WIRE 48 -80 48 -176
WIRE -464 -64 -464 -80
WIRE 432 -64 432 -176
WIRE 192 -32 192 -176
WIRE 320 -32 320 -48
WIRE 192 -16 192 -32
WIRE -96 0 -112 0
WIRE 0 0 0 -80
WIRE 0 0 -96 0
WIRE -240 16 -240 0
WIRE -96 16 -96 0
WIRE 48 32 48 0
WIRE 48 32 -16 32
WIRE 112 32 48 32
WIRE 448 32 400 32
WIRE 48 48 48 32
WIRE 448 48 448 32
WIRE -16 128 -16 112
WIRE 32 128 -16 128
WIRE 48 128 48 112
WIRE 48 128 32 128
WIRE 112 128 48 128
WIRE 448 128 448 112
WIRE 448 128 400 128
WIRE 496 128 448 128
WIRE 704 128 576 128
WIRE 32 144 32 128
WIRE -112 224 -112 208
WIRE -16 224 -112 224
WIRE 112 224 -16 224
WIRE 704 224 704 128
WIRE 704 224 400 224
WIRE 2400 272 1856 272
WIRE 16 320 0 320
WIRE 112 320 80 320
WIRE 624 320 400 320
WIRE 784 320 624 320
WIRE 944 320 784 320
WIRE 1088 320 944 320
WIRE 1248 320 1088 320
WIRE 1440 320 1248 320
WIRE 1600 320 1440 320
WIRE 1728 320 1680 320
WIRE 1760 320 1728 320
WIRE 1776 320 1760 320
WIRE 1856 320 1856 272
WIRE 1856 320 1776 320
WIRE 784 336 784 320
WIRE 944 336 944 320
WIRE 1088 336 1088 320
WIRE 1248 336 1248 320
WIRE 1440 336 1440 320
WIRE 1760 336 1760 320
WIRE 16 416 0 416
WIRE 112 416 96 416
WIRE 624 416 624 400
WIRE 624 416 400 416
WIRE 784 416 784 400
WIRE 784 416 624 416
WIRE 2288 416 2240 416
WIRE 2400 416 2288 416
WIRE 3056 416 2944 416
WIRE 3168 416 3056 416
WIRE 3472 416 3168 416
WIRE 3488 416 3472 416
WIRE 3648 416 3488 416
WIRE 624 432 624 416
WIRE 944 432 944 400
WIRE 1088 432 1088 400
WIRE 1248 432 1248 416
WIRE 784 448 784 416
WIRE 1760 448 1760 400
WIRE 3648 448 3648 416
WIRE 256 496 256 480
WIRE 3056 496 2944 496
WIRE 3056 512 3056 496
WIRE 3168 512 3168 496
WIRE 3264 512 3168 512
WIRE 624 528 624 512
WIRE 784 528 784 512
WIRE 2176 528 2176 512
WIRE 2400 528 2176 528
WIRE 3168 528 3168 512
WIRE 3472 560 3472 416
WIRE 2992 608 2976 608
WIRE 3056 608 3056 576
WIRE 3056 608 2992 608
WIRE 2512 624 2512 576
WIRE 2512 624 2448 624
WIRE 2528 624 2512 624
WIRE 2640 624 2640 576
WIRE 3056 624 3056 608
WIRE 2736 640 2736 576
WIRE 2864 640 2864 576
WIRE 2944 640 2864 640
WIRE 2528 656 2528 624
WIRE 2448 672 2448 624
WIRE 3168 688 3168 608
WIRE 3472 704 3472 640
WIRE 2448 768 2448 736
WIRE 2528 768 2528 736
WIRE 2528 768 2448 768
WIRE 2688 768 2688 720
WIRE 2688 768 2528 768
FLAG 256 496 0
FLAG -464 -64 0
FLAG 0 320 0
FLAG 0 416 0
FLAG 624 528 0
FLAG 1248 432 0
FLAG 944 432 0
FLAG -464 -176 IN
FLAG 1248 320 OUT1
FLAG -96 16 0
FLAG 784 528 0
FLAG 1088 432 0
FLAG 32 144 0
FLAG 432 -64 0
FLAG -112 128 OUT1
FLAG -240 16 0
FLAG 1440 416 0
FLAG 1760 448 0
FLAG 1776 320 OUT2
FLAG -16 224 15v_pg
FLAG 2288 416 15v_pg
FLAG 2176 432 5vout
FLAG 2640 624 0
FLAG 3264 512 pgfb_node
FLAG 2944 640 pgfb_node
FLAG 3168 688 0
FLAG 3056 704 0
FLAG 2992 608 setnode
FLAG 2688 720 setnode
FLAG 2736 720 0
FLAG 3472 704 0
FLAG 3488 416 5vout
FLAG 3648 528 0
DATAFLAG 1728 320 ""
SYMBOL LT8631 256 224 R0
SYMATTR InstName U1
SYMBOL voltage -464 -176 R0
WINDOW 123 0 0 Left 2
WINDOW 39 24 44 Left 2
SYMATTR SpiceLine Rser=0.01 Cpar=9u
SYMATTR InstName Vin1
SYMATTR Value PULSE(0 52 25n 100n 0 2 5)
SYMBOL cap 80 304 R90
WINDOW 0 0 32 VBottom 2
WINDOW 3 32 32 VTop 2
SYMATTR InstName C3
SYMATTR Value 0.0056µ
SYMATTR SpiceLine V=25 Irms=293m Rser=0.574834 Lser=0 mfg="KEMET" pn="C1210C562K3RAC" type="X7R"
SYMBOL res 112 400 R90
WINDOW 0 0 56 VBottom 2
WINDOW 3 32 56 VTop 2
SYMATTR InstName Rfreq_1
SYMATTR Value 25.5k
SYMBOL ind 480 144 R270
WINDOW 0 32 56 VTop 2
WINDOW 3 5 56 VBottom 2
SYMATTR InstName Lo1
SYMATTR Value {Lo1}
SYMATTR SpiceLine Rser={DCR1}
SYMBOL res 608 304 R0
SYMATTR InstName RfbTop1
SYMATTR Value {RfbTop1}
SYMBOL res 608 416 R0
SYMATTR InstName RfbBot1
SYMATTR Value {RfbBot1}
SYMBOL cap 768 336 R0
SYMATTR InstName CfbTop1
SYMATTR Value {CfbTop1}
SYMBOL cap 928 336 R0
WINDOW 3 28 42 Left 2
WINDOW 123 31 71 Left 2
SYMATTR Value {Coc1}
SYMATTR Value2 x{nCoc1}
SYMATTR InstName Coc1
SYMATTR SpiceLine Rser={ESRc1} Lser={ESLc1}
SYMBOL cap 432 48 R0
SYMATTR InstName C6
SYMATTR Value .1µ
SYMBOL cap 304 -112 R0
SYMATTR InstName C9
SYMATTR Value 2.2µ
SYMBOL cap -112 -144 R0
WINDOW 0 41 6 Left 2
WINDOW 3 35 35 Left 2
WINDOW 123 35 62 Left 2
SYMATTR InstName Cinc1
SYMATTR Value {Cinc1}
SYMATTR Value2 x{nCinc1}
SYMBOL polcap -256 -144 R0
WINDOW 3 42 36 Left 2
WINDOW 123 39 64 Left 2
SYMATTR Value 4.7µ
SYMATTR Value2 x{nCinb1}
SYMATTR InstName Cinb1
SYMATTR Description Capacitor
SYMATTR Type cap
SYMATTR SpiceLine V=63 Irms=1.73205 Rser=0.075 Lser=0 mfg="KEMET" pn="T521D475M063ATE075" type="Tantalum"
SYMBOL cap 768 448 R0
SYMATTR InstName CfbBot1
SYMATTR Value {CfbBot1}
SYMBOL polcap 1072 336 R0
WINDOW 3 38 56 Left 2
WINDOW 123 35 85 Left 2
SYMATTR Value {Cob1}
SYMATTR Value2 x{nCob1}
SYMATTR InstName Cob1
SYMATTR Description Capacitor
SYMATTR Type cap
SYMATTR SpiceLine Rser={ESRb1} Lser={ESLb1}
SYMBOL current 1248 336 R0
WINDOW 3 24 80 Invisible 2
WINDOW 123 0 0 Left 2
WINDOW 39 0 0 Left 2
SYMATTR Value PULSE(0 1.5 1.5m 100n 100n 1u 33.3u)
SYMATTR InstName LoadStep1
SYMBOL res -128 112 R0
SYMATTR InstName R1
SYMATTR Value 100k
SYMBOL res -256 -96 R0
SYMATTR InstName R2
SYMATTR Value 10
SYMBOL ind -304 -208 R90
WINDOW 0 5 56 VBottom 2
WINDOW 3 32 56 VTop 2
SYMATTR InstName L1
SYMATTR Value 1.0µ
SYMATTR SpiceLine Rser=0.05 Cpar=100p
SYMBOL cap -16 -144 R0
SYMATTR InstName C1
SYMATTR Value 0.47µ
SYMATTR SpiceLine V=100 Irms=2.1 Rser=0.0501362 Lser=0 mfg="KEMET" pn="C1812C474K1RAC" type="X7R"
SYMBOL res -112 -96 R0
SYMATTR InstName R3
SYMATTR Value 1
SYMBOL current 1440 336 R0
WINDOW 3 24 80 Invisible 2
WINDOW 123 0 0 Left 2
WINDOW 39 0 0 Left 2
SYMATTR Value PULSE(0 1.5 1.543m 100n 100n 1u 33.3u)
SYMATTR InstName LoadStep2
SYMBOL res 1696 304 R90
WINDOW 0 0 56 VBottom 2
WINDOW 3 32 56 VTop 2
SYMATTR InstName R4
SYMATTR Value 2
SYMBOL cap 1744 336 R0
SYMATTR InstName C2
SYMATTR Value 4.7µ
SYMATTR SpiceLine V=25 Irms=0 Rser=0.003365 Lser=0.797504f mfg="Wuerth Elektronik" pn="885012208068 WCAP-CSGP 1206" type="X7R"
SYMBOL res 32 -96 R0
SYMATTR InstName R6
SYMATTR Value 124k
SYMBOL res -32 16 R0
SYMATTR InstName R7
SYMATTR Value 10k
SYMBOL cap 32 48 R0
SYMATTR InstName C4
SYMATTR Value 0.001µ
SYMATTR SpiceLine V=100 Irms=83.8m Rser=2.70485 Lser=0 mfg="KEMET" pn="C0805C102K1RAC" type="X7R"
SYMBOL current 3472 560 R0
WINDOW 123 0 0 Left 2
WINDOW 39 24 108 Left 2
SYMATTR InstName I1
SYMATTR Value PULSE(50u 140m 2.865m 50u 100u 3 6)
SYMATTR SpiceLine load
SYMBOL PowerProducts\\LT3045 2640 416 R0
SYMATTR InstName U2
SYMBOL res 2160 416 R0
SYMATTR InstName R5
SYMATTR Value 140k
SYMBOL res 3152 400 R0
SYMATTR InstName R8
SYMATTR Value 140k
SYMBOL res 3152 512 R0
SYMATTR InstName R9
SYMATTR Value 10k
SYMBOL cap 3040 512 R0
SYMATTR InstName C5
SYMATTR Value 10µ
SYMATTR SpiceLine V=10 Irms=0 Rser=0.002889 Lser=0.748357f mfg="Wuerth Elektronik" pn="885012208018 WCAP-CSGP 1206" type="X7R"
SYMBOL res 3040 400 R0
SYMATTR InstName R10
SYMATTR Value 0.01
SYMBOL res 3040 608 R0
SYMATTR InstName R11
SYMATTR Value 0.001
SYMBOL cap 2432 672 R0
SYMATTR InstName C7
SYMATTR Value 1µ
SYMATTR SpiceLine V=18 Irms=1.78 Rser=0.0675534 Lser=0
SYMBOL res 2512 640 R0
SYMATTR InstName R12
SYMATTR Value 49.9k
SYMBOL res 2720 624 R0
SYMATTR InstName R13
SYMATTR Value 604
SYMBOL res 3632 432 R0
SYMATTR InstName R14
SYMATTR Value 40
TEXT -656 800 Left 2 ;parameter imported from LTPowerCAD Design Tool:
TEXT 1296 680 Left 2 !.tran 0 6.5m 0 100n startup
TEXT 1056 744 Left 2 ;Note: Simulation is running at the default switching frequency for the part.\nPlease manually adjust for additional switching frequency options.
TEXT -656 848 Left 0 !.params Vin1=50 Cinb1=4.7u CinbESR1=20m nCinb1=1 Cinc1=2.2u CincESR1=7m nCinc1=1 fsw1=397k  \n.params RfbTop1=1000k RfbBot1=57.6k CfbTop1=200p CfbBot1=0p  \n.params Rth1=0k Cth1=0p Cthp1=0p  \n.params SenseRs1=0k SenseC1=0u SenseRp1=0k  \n.params Rsense1=25m RsenseFilterR1=0 RsenseFilterC1=0n  \n.params Lo1=22u DCR1=150m  \n.params Cob1=47u ESRb1=5m ESLb1=0.2n nCob1=1  \n.params Coc1=47u ESRc1=5m ESLc1=0.2n nCoc1=1  \n.params Rfreq_1=25.5k Rfreq2_1=0k  \n.params LoadStepHigh1=0.3 LoadStepLow1=0
